[General]
cmdenv-express-mode = false
#cmdenv-autoflush = false
**.cmdenv-log-level = info

ned-path = .
image-path = ../../images

num-rngs = 6
repeat = 6
seed-set = ${repetition}

network = scenarioPedro

##########################################################
#            Simulation parameters                       #
##########################################################
debug-on-errors = true
print-undisposed = false
sim-time-limit = 300s

**.scalar-recording = true
**.vector-recording = true

**.debug = false
**.coreDebug = false

*.playgroundSizeX = 10000m
*.playgroundSizeY = 500m
*.playgroundSizeZ = 50m

##########################################################
# Annotation parameters                                  #
##########################################################
*.annotations.draw = true

##########################################################
#            11p specific parameters                     #
#                                                        #
#                    NIC-Settings                        #
##########################################################
*.connectionManager.sendDirect = true
*.connectionManager.maxInterfDist = 2600m

*.**.nic.mac1609_4.useServiceChannel = false

*.**.nic.mac1609_4.txPower =  1.6mW #(0.61mW -> 150m, 0.98mW -> 200m, 1.6mW -> 250m, 2.2mW -> 300m)
*.**.nic.mac1609_4.bitrate = 6Mbps
*.**.nic.phy80211p.sensitivity = -94dBm

*.**.nic.phy80211p.useThermalNoise = true
*.**.nic.phy80211p.thermalNoise = -110dBm

*.**.nic.phy80211p.decider = xmldoc("config.xml")
*.**.nic.phy80211p.analogueModels = xmldoc("config.xml")
*.**.nic.phy80211p.usePropagationDelay = true

*.**.nic.phy80211p.antenna = xmldoc("antenna.xml", "/root/Antenna[@id='monopole']")


##########################################################
#                      Mobility                          #
##########################################################
*.node[*].veinsmobility.x = 0
*.node[*].veinsmobility.y = 0
*.node[*].veinsmobility.z = 1.895

##########################################################
#            VLC specific parameters                     #
#                                                        #
#                    NIC-Settings                        #
##########################################################
# PhyLayerVlc
*.**.nicVlc**.phyVlc.txPower = 10mW	
*.**.nicVlc**.phyVlc.bitrate = 6Mbps	# Assuming OOK for PHY II from Table 74 of IEEE 802.15.7 Std
*.**.nicVlc**.phyVlc.centerFrequency = 666000GHz
*.**.nicVlc**.phyVlc.bandwidth = 1.0MHz

# Inherited from BasePhyLayer
*.**.nicVlc**.phyVlc.usePropagationDelay = true
*.**.nicVlc**.phyVlc.thermalNoise = -110dBm
*.**.nicVlc**.phyVlc.useThermalNoise = true
*.**.nicVlc**.phyVlc.analogueModels = xmldoc("config-vlc.xml")
*.**.nicVlc**.phyVlc.decider = xmldoc("config-vlc.xml")
*.**.nicVlc**.phyVlc.sensitivity = -114dBm

# NicVlc
*.**.nicVlcHead.direction = "head"
*.**.nicVlcTail.direction = "tail"

# Splitter
*.**.splitter.drawHeadHalfAngle = 45deg
*.**.splitter.drawTailHalfAngle = 60deg
#############################################################################################################################################################################################################
[Config Drive-Vlc-Position]
experiment-label = vlc-experiment-highwaySimple
result-dir = results/VVLC-highwaySimple/

warmup-period = 0

# Text debugging
*.node[*].application.debug =  true
*.node[*].splitter.debug = true
*.node[*].nicVlc**.phyVLC.debug = false
**.debug = false
**.coreDebug = false

# Visual debugging
*.annotations.draw = true
*.node[*].splitter.draw = true
**.draw = false

##########################################################
#            TraCIScenarioManager parameters             #
##########################################################
*.manager.updateInterval = 0.1s
*.manager.moduleType = "org.car2x.veins.modules.vlc.CarVlc"
*.manager.numVehicles = 2
*.manager.distanceVehicles = 250m
*.manager.commandLine = "sumo-gui --remote-port $port --seed $seed --configuration-file $configFile"
*.manager.configFile = "curved-road/sumo.sumocfg"

##########################################################
#                    WaveAppLayer                        #
##########################################################
*.node[*].applType = "org.car2x.veins.modules.vlc.application.PositionVlcApp.PositionVlcApp"
*.node[*].application.packetByteLength = 1024byte
*.node[*].application.beaconingFrequency = 1Hz
*.node[*].application.repetition = ${repetition}
*.node[2].application.posReq = false
*.node[9].application.posReq = true
*.node[14].application.posReq = false