<?xml version="1.0" encoding="UTF-8"?>

<!-- generated on Wed Dec  5 17:19:35 2018 by SUMO netconvert Version 0.30.0
<?xml version="1.0" encoding="UTF-8"?>

<configuration xmlns:xsi="http://www.w3.org/2001/XMLSchema-instance" xsi:noNamespaceSchemaLocation="http://sumo.dlr.de/xsd/netconvertConfiguration.xsd">

    <input>
        <node-files value="scenario.nod.xml"/>
        <edge-files value="scenario.edg.xml"/>
    </input>

    <output>
        <output-file value="scenario.net.xml"/>
    </output>

</configuration>
-->

<net version="0.27" xmlns:xsi="http://www.w3.org/2001/XMLSchema-instance" xsi:noNamespaceSchemaLocation="http://sumo.dlr.de/xsd/net_file.xsd">

    <location netOffset="0.00,0.00" convBoundary="0.00,0.00,10000.00,0.00" origBoundary="0.00,0.00,10000.00,0.00" projParameter="!"/>

    <edge id="1to2" from="1" to="2" priority="-1">
        <lane id="1to2_0" index="0" speed="13.90" length="10000.00" shape="0.00,-8.25 10000.00,-8.25"/>
        <lane id="1to2_1" index="1" speed="13.90" length="10000.00" shape="0.00,-4.95 10000.00,-4.95"/>
        <lane id="1to2_2" index="2" speed="13.90" length="10000.00" shape="0.00,-1.65 10000.00,-1.65"/>
    </edge>

    <junction id="1" type="dead_end" x="0.00" y="0.00" incLanes="" intLanes="" shape="0.00,-0.05 0.00,-9.85"/>
    <junction id="2" type="dead_end" x="10000.00" y="0.00" incLanes="1to2_0 1to2_1 1to2_2" intLanes="" shape="10000.00,-9.85 10000.00,-0.05"/>

</net>
