<routes>
    <vType accel="3.5" decel="2.2" id="Car" length="5" maxSpeed="1.0" sigma="0" departSpeed="max"/>
    <route id="route0" edges="1to2"/>
    <vehicle depart="0.00" id="veh0" route="route0" type="Car" departLane="0" arrivalLane="0" departSpeed="max" departPos="50.0"/>
    <vehicle depart="0.00" id="veh1" route="route0" type="Car" departLane="1" arrivalLane="1" departSpeed="max" departPos="50.0"/>
    <vehicle depart="0.00" id="veh2" route="route0" type="Car" departLane="2" arrivalLane="2" departSpeed="max" departPos="50.0"/>
    <vehicle depart="0.00" id="veh3" route="route0" type="Car" departLane="1" arrivalLane="1" departSpeed="max" departPos="30.0"/>
    <vehicle depart="0.00" id="veh4" route="route0" type="Car" departLane="0" arrivalLane="0" departSpeed="max" departPos="20.0"/>
    <vehicle depart="0.00" id="veh5" route="route0" type="Car" departLane="1" arrivalLane="1" departSpeed="max" departPos="20.0"/>
    <vehicle depart="0.00" id="veh6" route="route0" type="Car" departLane="2" arrivalLane="2" departSpeed="max" departPos="20.0"/>
    
    <vehicle depart="0.00" id="veh7" route="route0" type="Car" departLane="0" arrivalLane="0" departSpeed="max" departPos="160.0"/>
    <vehicle depart="0.00" id="veh8" route="route0" type="Car" departLane="1" arrivalLane="1" departSpeed="max" departPos="160.0"/>
    <vehicle depart="0.00" id="veh9" route="route0" type="Car" departLane="2" arrivalLane="2" departSpeed="max" departPos="160.0"/>
    <vehicle depart="0.00" id="veh10" route="route0" type="Car" departLane="1" arrivalLane="1" departSpeed="max" departPos="110.0"/>
    <vehicle depart="0.00" id="veh11" route="route0" type="Car" departLane="0" arrivalLane="0" departSpeed="max" departPos="60.0"/>
    <vehicle depart="0.00" id="veh12" route="route0" type="Car" departLane="1" arrivalLane="1" departSpeed="max" departPos="60.0"/>
    <vehicle depart="0.00" id="veh13" route="route0" type="Car" departLane="2" arrivalLane="2" departSpeed="max" departPos="60.0"/>
    
    <vehicle depart="0.00" id="veh14" route="route0" type="Car" departLane="0" arrivalLane="0" departSpeed="max" departPos="400.0"/>
    <vehicle depart="0.00" id="veh15" route="route0" type="Car" departLane="1" arrivalLane="1" departSpeed="max" departPos="400.0"/>
    <vehicle depart="0.00" id="veh16" route="route0" type="Car" departLane="2" arrivalLane="2" departSpeed="max" departPos="400.0"/>
    <vehicle depart="0.00" id="veh17" route="route0" type="Car" departLane="1" arrivalLane="1" departSpeed="max" departPos="300.0"/>
    <vehicle depart="0.00" id="veh18" route="route0" type="Car" departLane="0" arrivalLane="0" departSpeed="max" departPos="200.0"/>
    <vehicle depart="0.00" id="veh19" route="route0" type="Car" departLane="1" arrivalLane="1" departSpeed="max" departPos="200.0"/>
    <vehicle depart="0.00" id="veh20" route="route0" type="Car" departLane="2" arrivalLane="2" departSpeed="max" departPos="200.0"/>    
</routes>
